gridcapa-pst-regulation/src/test/resources/network/2Nodes4ParallelLines2PSTs.uct
##C 2007.05.01
##N
##ZBE
BBE1AA1  BE1          0 2 400.00 0.00000 0.00000 -1000.0 0.00000 9000.00 -9000.0 9000.00 -9000.0
##ZFR
FFR1AA1  FR1          0 2 400.00 1000.00 0.00000 00000.0 0.00000 9000.00 -9000.0 9000.00 -9000.0
##L
BBE1AA1  FFR1AA1  1 0 0.0000 10.000 0.000000   5000
BBE1AA1  FFR1AA1  3 0 0.0000 10.000 0.000000   5000
##T
BBE1AA1  FFR1AA1  2 0 400.0 400.0 1000. 0.0000 10.000 0.000000 0.0	     200  PST
BBE1AA1  FFR1AA1  4 0 400.0 400.0 1000. 0.0000 10.000 0.000000 0.0	     500  PST
##R
BBE1AA1  FFR1AA1  2                    -0.68 90.00 16 0         SYMM
BBE1AA1  FFR1AA1  3                    -0.68 90.00 16 0         SYMM
BBE1AA1  FFR1AA1  4                    -0.68 90.00 16 0         SYMM
